/*--------------------------------*- C++ -*----------------------------------*\
| =========                 |                                                 |
| \\      /  F ield         | OpenFOAM: The Open Source CFD Toolbox           |
<<<<<<< HEAD
|  \\    /   O peration     | Version:  3.0.x                                 |
=======
|  \\    /   O peration     | Version:  4.x                                   |
>>>>>>> 90e2f8d87bcd3a8588545c2de68a62d5b5c54a99
|   \\  /    A nd           | Web:      www.OpenFOAM.org                      |
|    \\/     M anipulation  |                                                 |
\*---------------------------------------------------------------------------*/
FoamFile
{
    version     2.0;
    format      ascii;
    class       dictionary;
    location    "constant";
    object      turbulenceProperties.particles;
}
// * * * * * * * * * * * * * * * * * * * * * * * * * * * * * * * * * * * * * //

simulationType  RAS;

RAS
{
    RASModel kineticTheory;

    turbulence      on;
    printCoeffs     on;

    kineticTheoryCoeffs
    {
        equilibrium             off;

        e                       0.8;
        alphaMax                0.62;
        alphaMinFriction        0.5;
        residualAlpha           1e-4;

        viscosityModel          Gidaspow;
        conductivityModel       Gidaspow;
        granularPressureModel   Lun;
        frictionalStressModel   JohnsonJackson;
        radialModel             SinclairJackson;

        JohnsonJacksonCoeffs
        {
            Fr                      0.05;
            eta                     2;
            p                       5;
            phi                     28.5;
            alphaDeltaMin           0.05;
        }
    }

    phasePressureCoeffs
    {
        preAlphaExp     500;
        expMax          1000;
        alphaMax        0.62;
        g0              1000;
    }
}


// ************************************************************************* //
