/*--------------------------------*- C++ -*----------------------------------*\
| =========                 |                                                 |
| \\      /  F ield         | OpenFOAM: The Open Source CFD Toolbox           |
<<<<<<< HEAD
|  \\    /   O peration     | Version:  3.0.x                                 |
=======
|  \\    /   O peration     | Version:  4.x                                   |
>>>>>>> 90e2f8d87bcd3a8588545c2de68a62d5b5c54a99
|   \\  /    A nd           | Web:      www.OpenFOAM.org                      |
|    \\/     M anipulation  |                                                 |
\*---------------------------------------------------------------------------*/
FoamFile
{
    version     2.0;
    format      ascii;
    class       dictionary;
    location    "constant";
    object      transportProperties;
}
// * * * * * * * * * * * * * * * * * * * * * * * * * * * * * * * * * * * * * //

phases
(
    air
    {
        rho             1;
        nu              1.6e-05;
        kappa           0;
        Cp              0;

        diameterModel   constant;
        constantCoeffs
        {
            d               3e-3;
        }
    }

    water
    {
        rho             1000;
        nu              1e-06;
        kappa           0;
        Cp              0;

        diameterModel constant;
        constantCoeffs
        {
            d               1e-4;
        }
    }
);


sigmas
(
);

interfaceCompression
(
);

virtualMass
(
    (air water)     0.5
);

drag
(
    (air water)
    {
        type blended;

        air
        {
            type SchillerNaumann;
            residualPhaseFraction 0;
            residualSlip 0;
        }

        water
        {
            type SchillerNaumann;
            residualPhaseFraction 0;
            residualSlip 0;
        }

        residualPhaseFraction 1e-3;
        residualSlip 1e-3;
    }
);


// This is a dummy to support the Smagorinsky model
transportModel  Newtonian;
nu              [0 2 -1 0 0 0 0] 0;


// ************************************************************************* //
