/*--------------------------------*- C++ -*----------------------------------*\
| =========                 |                                                 |
| \\      /  F ield         | OpenFOAM: The Open Source CFD Toolbox           |
<<<<<<< HEAD
|  \\    /   O peration     | Version:  3.0.x                                 |
=======
|  \\    /   O peration     | Version:  4.x                                   |
>>>>>>> 90e2f8d87bcd3a8588545c2de68a62d5b5c54a99
|   \\  /    A nd           | Web:      www.OpenFOAM.org                      |
|    \\/     M anipulation  |                                                 |
\*---------------------------------------------------------------------------*/
FoamFile
{
    version     2.0;
    format      ascii;
    class       dictionary;
    location    "system";
    object      fvSolution;
}
// * * * * * * * * * * * * * * * * * * * * * * * * * * * * * * * * * * * * * //

solvers
{
    "(rho|.*Final)"
    {
        solver          PCG;
        preconditioner  DIC;
        tolerance       0;
        relTol          0.1;
    }

    p
    {
        solver           GAMG;

        tolerance        0;
        relTol           0.05;

        smoother         DICGaussSeidel;



        maxIter          50;
    };

    pFinal
    {
        $p;
        tolerance        1e-4;
    }

    "(U|Yi|h|k|omega|.*Final)"
    {
        solver          smoothSolver;
        smoother        GaussSeidel;
        tolerance       0;
        relTol          0.1;
        maxIter         20;
    }
}

PIMPLE
{
    nOuterCorrectors 1;
    nCorrectors     2;
    nNonOrthogonalCorrectors 0;
    momentumPredictor yes;
    rhoMin          0.1;
    rhoMax          1.5;

    maxCo           2.5;
    rDeltaTSmoothingCoeff 0.5;
    alphaTemp       1;
    maxDeltaT       1;
}


// ************************************************************************* //
