/*--------------------------------*- C++ -*----------------------------------*\
| =========                 |                                                 |
| \\      /  F ield         | OpenFOAM: The Open Source CFD Toolbox           |
<<<<<<< HEAD
|  \\    /   O peration     | Version:  3.0.x                                 |
=======
|  \\    /   O peration     | Version:  4.x                                   |
>>>>>>> 90e2f8d87bcd3a8588545c2de68a62d5b5c54a99
|   \\  /    A nd           | Web:      www.OpenFOAM.org                      |
|    \\/     M anipulation  |                                                 |
\*---------------------------------------------------------------------------*/
FoamFile
{
    version     2.0;
    format      ascii;
    class       dictionary;
    location    "constant";
    object      SurfaceFilmProperties;
}
// * * * * * * * * * * * * * * * * * * * * * * * * * * * * * * * * * * * * * //

surfaceFilmModel kinematicSingleLayer;

regionName      wallFilmRegion;

active          true;

kinematicSingleLayerCoeffs
{
    filmThermoModel constant;
    constantCoeffs
    {
        specie      water;
        rho0        1000;
        mu0         1e-3;
        sigma0      0.07;
    }

    injectionModels ();

    turbulence      laminar;
    laminarCoeffs
    {
        Cf          0.001;
    }

    forces
    (
        contactAngle
        thermocapillary
    );

    contactAngleCoeffs
    {
        Ccf             1;
        contactAngleDistribution
        {
            type            normal;
            normalDistribution
            {
                minValue        50;
                maxValue        100;
                expectation     75;
                variance        100;
            }
        }

        zeroForcePatches    ();
    }
}
