/*--------------------------------*- C++ -*----------------------------------*\
| =========                 |                                                 |
| \\      /  F ield         | OpenFOAM: The Open Source CFD Toolbox           |
<<<<<<< HEAD
|  \\    /   O peration     | Version:  3.0.x                                 |
=======
|  \\    /   O peration     | Version:  4.x                                   |
>>>>>>> 90e2f8d87bcd3a8588545c2de68a62d5b5c54a99
|   \\  /    A nd           | Web:      www.OpenFOAM.org                      |
|    \\/     M anipulation  |                                                 |
\*---------------------------------------------------------------------------*/
FoamFile
{
    version     2.0;
    format      ascii;
    class       dictionary;
    object      meshDict.surfaceConformation;
}
// * * * * * * * * * * * * * * * * * * * * * * * * * * * * * * * * * * * * * //

angledDuct
{
    featureMethod   none;
    meshableSide    inside;

    regions
    {
        wall
        {
            patchInfo
            {
                type        wall;
                inGroups    (groupWalls);
            }
        }
        porosityWall
        {
            patchInfo
            {
                type        wall;
                inGroups    (groupWalls);
            }
        }
        front
        {
            patchInfo
            {
                type        wall;
                inGroups    (groupWalls);
            }
        }
        inlet
        {
            patchInfo
            {
                type        patch;
            }
        }
        outlet
        {
            patchInfo
            {
                type        patch;
            }
        }
        back
        {
            patchInfo
            {
                type        wall;
                inGroups    (groupWalls);
            }
        }
    }
}

porosity
{
    featureMethod   none;

    // Mesh both sides, one of which is a cellZone
    meshableSide    both;
    faceZone        porosity;
    cellZone        porosity;
    cellZoneInside  inside;
}


// ************************************************************************* //
