/*--------------------------------*- C++ -*----------------------------------*\
| =========                 |                                                 |
| \\      /  F ield         | OpenFOAM: The Open Source CFD Toolbox           |
<<<<<<< HEAD
|  \\    /   O peration     | Version:  3.0.x                                 |
=======
|  \\    /   O peration     | Version:  4.x                                   |
>>>>>>> 90e2f8d87bcd3a8588545c2de68a62d5b5c54a99
|   \\  /    A nd           | Web:      www.OpenFOAM.org                      |
|    \\/     M anipulation  |                                                 |
\*---------------------------------------------------------------------------*/
FoamFile
{
    version     2.0;
    format      ascii;
    class       dictionary;
    object      meshDict.geometry;
}
// * * * * * * * * * * * * * * * * * * * * * * * * * * * * * * * * * * * * * //

straightDuct.stl
{
    type triSurfaceMesh;
    name angledDuct;

    regions
    {
        wall
        {
            name walls;
        }
        porosityWall
        {
            name porosityWall;
        }
        front
        {
            name front;
        }
        inlet
        {
            name inlet;
        }
        outlet
        {
            name outlet;
        }
        back
        {
            name back;
        }
    }
}

porosity_inflated.stl
{
    type triSurfaceMesh;
    name porosity;
}

// ************************************************************************* //
