/*--------------------------------*- C++ -*----------------------------------*\
| =========                 |                                                 |
| \\      /  F ield         | OpenFOAM: The Open Source CFD Toolbox           |
<<<<<<< HEAD
|  \\    /   O peration     | Version:  3.0.x                                 |
=======
|  \\    /   O peration     | Version:  4.x                                   |
>>>>>>> 90e2f8d87bcd3a8588545c2de68a62d5b5c54a99
|   \\  /    A nd           | Web:      www.OpenFOAM.org                      |
|    \\/     M anipulation  |                                                 |
\*---------------------------------------------------------------------------*/
FoamFile
{
    version     2.0;
    format      ascii;
    class       dictionary;
    object      topoSetDict;
}

// * * * * * * * * * * * * * * * * * * * * * * * * * * * * * * * * * * * * * //

actions
(
    // filter
    {
        name    filterCellSet;
        type    cellSet;
        action  new;
        source  boxToCell;
        sourceInfo
        {
            box (1.5 -10 -10) (2 10 10);
        }
    }
    {
        name    filter;
        type    cellZoneSet;
        action  new;
        source  setToCellZone;
        sourceInfo
        {
            set filterCellSet;
        }
    }


    {
        name    leftFluidCellSet;
        type    cellSet;
        action  new;
        source  boxToCell;
        sourceInfo
        {
            box (-10 -10 -10) (1.5 10 10);
        }
    }
    {
        name    leftFluid;
        type    cellZoneSet;
        action  new;
        source  setToCellZone;
        sourceInfo
        {
            set leftFluidCellSet;
        }
    }
    {
        name    rightFluidCellSet;
        type    cellSet;
        action  new;
        source  boxToCell;
        sourceInfo
        {
            box (2 -1 -1) (10 10 10);
        }
    }
    {
        name    rightFluid;
        type    cellZoneSet;
        action  new;
        source  setToCellZone;
        sourceInfo
        {
            set rightFluidCellSet;
        }
    }


    // cycLeft
    {
        name    cycLeftFaceSet;
        type    faceSet;
        action  new;
        source  cellToFace;
        sourceInfo
        {
            set     filterCellSet;
            option  all;
        }
    }
    {
        name    cycLeftFaceSet;
        type    faceSet;
        action  subset;
        source  cellToFace;
        sourceInfo
        {
            set     leftFluidCellSet;
            option  all;
        }
    }
    // Create faceZone from cycLeft
    {
        name    cycLeft;
        type    faceZoneSet;
        action  new;
        source  setToFaceZone;
        sourceInfo
        {
            faceSet cycLeftFaceSet;
        }
    }

    // cycRight
    {
        name    cycRightFaceSet;
        type    faceSet;
        action  new;
        source  cellToFace;
        sourceInfo
        {
            set     filterCellSet;
            option  all;
        }
    }
    {
        name    cycRightFaceSet;
        type    faceSet;
        action  subset;
        source  cellToFace;
        sourceInfo
        {
            set     rightFluidCellSet;
            option  all;
        }
    }
    // Create faceZone from cycRight
    {
        name    cycRight;
        type    faceZoneSet;
        action  new;
        source  setToFaceZone;
        sourceInfo
        {
            faceSet cycRightFaceSet;
        }
    }
);


// ************************************************************************* //
