/*---------------------------------------------------------------------------*\
| =========                 |                                                 |
| \\      /  F ield         | OpenFOAM: The Open Source CFD Toolbox           |
<<<<<<< HEAD
|  \\    /   O peration     | Version:  3.0.x                                 |
=======
|  \\    /   O peration     | Version:  4.x                                   |
>>>>>>> 90e2f8d87bcd3a8588545c2de68a62d5b5c54a99
|   \\  /    A nd           | Web:      www.OpenFOAM.org                      |
|    \\/     M anipulation  |                                                 |
\*---------------------------------------------------------------------------*/
FoamFile
{
    version     2.0;
    format      binary;
    class       dictionary;
    location    "constant";
    object      pyrolysisZones;
}
// * * * * * * * * * * * * * * * * * * * * * * * * * * * * * * * * * * * * * //

pyrolysis
{
    active          true;

    pyrolysisModel  reactingOneDim;

    regionName      panelRegion;

    reactingOneDimCoeffs
    {
        gasHSource      false; //Energy source term due to pyrolysis gas
        QrHSource       false; //Energy source term due in depht radiation
        minimumDelta    1e-12;

        reactionDeltaMin 1e-12;

        moveMesh        false;
    }

    infoOutput      true;
}


// ************************************************************************* //
