/*--------------------------------*- C++ -*----------------------------------*\
| =========                 |                                                 |
| \\      /  F ield         | OpenFOAM: The Open Source CFD Toolbox           |
<<<<<<< HEAD
|  \\    /   O peration     | Version:  3.0.x                                 |
=======
|  \\    /   O peration     | Version:  4.x                                   |
>>>>>>> 90e2f8d87bcd3a8588545c2de68a62d5b5c54a99
|   \\  /    A nd           | Web:      www.OpenFOAM.org                      |
|    \\/     M anipulation  |                                                 |
\*---------------------------------------------------------------------------*/
FoamFile
{
    version     2.0;
    format      ascii;
    class       dictionary;
    location    "constant";
    object      transportProperties;
}
// * * * * * * * * * * * * * * * * * * * * * * * * * * * * * * * * * * * * * //

Dab           [0 2 -1 0 0 0 0]    1e-06;
alphatab      [0 0 0 0 0 0 0]     1;

phases (sludge water);

sludge
{
    transportModel  Newtonian;
    nu              [0 2 -1 0 0 0 0] 1e-06;
    rho             [1 -3 0 0 0 0 0] 1000;
}

water
{
    transportModel  Newtonian;
    nu              [0 2 -1 0 0 0 0] 1e-06;
    rho             [1 -3 0 0 0 0 0] 990;
}

// ************************************************************************* //
