/*--------------------------------*- C++ -*----------------------------------*\
| =========                 |                                                 |
| \\      /  F ield         | OpenFOAM: The Open Source CFD Toolbox           |
<<<<<<< HEAD
|  \\    /   O peration     | Version:  3.0.x                                 |
=======
|  \\    /   O peration     | Version:  4.x                                   |
>>>>>>> 90e2f8d87bcd3a8588545c2de68a62d5b5c54a99
|   \\  /    A nd           | Web:      www.OpenFOAM.org                      |
|    \\/     M anipulation  |                                                 |
\*---------------------------------------------------------------------------*/
FoamFile
{
    version     2.0;
    format      ascii;
    class       dictionary;
    location    "system";
    object      controlDict;
}
// * * * * * * * * * * * * * * * * * * * * * * * * * * * * * * * * * * * * * //

application     sprayFoam;

startFrom       startTime;

startTime       0;

stopAt          endTime;

endTime         0.01;

deltaT          2.5e-06;

writeControl    adjustableRunTime;

writeInterval   5e-05;

purgeWrite      0;

writeFormat     binary;

writePrecision  6;

writeCompression uncompressed;

timeFormat      general;

timePrecision   6;

adjustTimeStep  yes;

maxCo           0.1;

runTimeModifiable yes;


// ************************************************************************* //
