/*--------------------------------*- C++ -*----------------------------------*\
| =========                 |                                                 |
| \\      /  F ield         | OpenFOAM: The Open Source CFD Toolbox           |
<<<<<<< HEAD
|  \\    /   O peration     | Version:  3.0.x                                 |
=======
|  \\    /   O peration     | Version:  4.x                                   |
>>>>>>> 90e2f8d87bcd3a8588545c2de68a62d5b5c54a99
|   \\  /    A nd           | Web:      www.OpenFOAM.org                      |
|    \\/     M anipulation  |                                                 |
\*---------------------------------------------------------------------------*/
FoamFile
{
    version     2.0;
    format      ascii;
    class       dictionary;
    object      setFieldsDict;
}
// * * * * * * * * * * * * * * * * * * * * * * * * * * * * * * * * * * * * * //

defaultFieldValues
(
    volScalarFieldValue h0 0
    volScalarFieldValue h 0.01
    volVectorFieldValue hU (0.001 0 0)
);

regions
(
    boxToCell
    {
        box (0.45 0.45 0) (0.55 0.55 0.1);

        fieldValues
        (
            volScalarFieldValue h0 0.001
            volScalarFieldValue h  0.009
            volVectorFieldValue hU  (0.0009 0 0)
        );
    }
);

// ************************************************************************* //
