/*--------------------------------*- C++ -*----------------------------------*\
| =========                 |                                                 |
| \\      /  F ield         | OpenFOAM: The Open Source CFD Toolbox           |
<<<<<<< HEAD
|  \\    /   O peration     | Version:  3.0.x                                 |
=======
|  \\    /   O peration     | Version:  4.x                                   |
>>>>>>> 90e2f8d87bcd3a8588545c2de68a62d5b5c54a99
|   \\  /    A nd           | Web:      www.OpenFOAM.org                      |
|    \\/     M anipulation  |                                                 |
\*---------------------------------------------------------------------------*/
FoamFile
{
    version     2.0;
    format      ascii;
    class       dictionary;
    object      faceSetDict;
}

// * * * * * * * * * * * * * * * * * * * * * * * * * * * * * * * * * * * * * //

// Name of set to operate on
name facesToBeRemoved;

// One of clear/new/invert/add/delete|subset/list
action new;

// Actions to apply to pointSet. These are all the topoSetSource's ending
// in ..ToFace (see the meshTools library).
topoSetSources
(
    //  Select by explicitly providing face labels
    labelToFace
    {
        value #include "../facesToBeRemoved";
    }
);

// ************************************************************************* //
