/*--------------------------------*- C++ -*----------------------------------*\
| =========                 |                                                 |
| \\      /  F ield         | OpenFOAM: The Open Source CFD Toolbox           |
<<<<<<< HEAD
|  \\    /   O peration     | Version:  3.0.x                                 |
=======
|  \\    /   O peration     | Version:  4.x                                   |
>>>>>>> 90e2f8d87bcd3a8588545c2de68a62d5b5c54a99
|   \\  /    A nd           | Web:      www.OpenFOAM.org                      |
|    \\/     M anipulation  |                                                 |
\*---------------------------------------------------------------------------*/
FoamFile
{
    version     2.0;
    format      ascii;
    class       dictionary;
    object      blockMeshDict;
}
// * * * * * * * * * * * * * * * * * * * * * * * * * * * * * * * * * * * * * //

convertToMeters 1;

vertices
(
    (0 0 0)
    (0.15 0 0)
    (0.15 1 0)
    (0 1 0)
    (0 0 0.1)
    (0.15 0 0.1)
    (0.15 1 0.1)
    (0 1 0.1)
);

blocks
(
    hex (0 1 2 3 4 5 6 7) (25 75 1) simpleGrading (1 1 1)
);

edges
(
);

patches
(
    patch outlet
    (
        (3 7 6 2)
    )
    wall walls
    (
        (1 5 4 0)
        (0 4 7 3)
        (2 6 5 1)
    )
);

mergePatchPairs
(
);

// ************************************************************************* //
