/*--------------------------------*- C++ -*----------------------------------*\
| =========                 |                                                 |
| \\      /  F ield         | OpenFOAM: The Open Source CFD Toolbox           |
<<<<<<< HEAD
|  \\    /   O peration     | Version:  3.0.x                                 |
=======
|  \\    /   O peration     | Version:  4.x                                   |
>>>>>>> 90e2f8d87bcd3a8588545c2de68a62d5b5c54a99
|   \\  /    A nd           | Web:      www.OpenFOAM.org                      |
|    \\/     M anipulation  |                                                 |
\*---------------------------------------------------------------------------*/
FoamFile
{
    version     2.0;
    format      ascii;
    class       dictionary;
    object      viewFactorsDict;
}
// * * * * * * * * * * * * * * * * * * * * * * * * * * * * * * * * * * * * * //

writeViewFactorMatrix     true;
writeFacesAgglomeration   true;
writePatchViewFactors     false;

bottomAir_to_heater
{
    nFacesInCoarsestLevel     30;
    featureAngle              10;
}

bottomAir_to_leftSolid
{
    nFacesInCoarsestLevel     20;
    featureAngle              10;
}

bottomAir_to_rightSolid
{
    nFacesInCoarsestLevel     20;
    featureAngle              10;
}

minX
{
    nFacesInCoarsestLevel     10;
    featureAngle              10;
}

minY
{
    nFacesInCoarsestLevel     30;
    featureAngle              10;
}

minZ
{
    nFacesInCoarsestLevel     20;
    featureAngle              10;
}

maxX
{
    nFacesInCoarsestLevel     10;
    featureAngle              10;
}

maxZ
{
    nFacesInCoarsestLevel     20;
    featureAngle              10;
}


// ************************************************************************* //
