/*--------------------------------*- C++ -*----------------------------------*\
| =========                 |                                                 |
| \\      /  F ield         | OpenFOAM: The Open Source CFD Toolbox           |
<<<<<<< HEAD
|  \\    /   O peration     | Version:  3.0.x                                 |
=======
|  \\    /   O peration     | Version:  4.x                                   |
>>>>>>> 90e2f8d87bcd3a8588545c2de68a62d5b5c54a99
|   \\  /    A nd           | Web:      www.OpenFOAM.org                      |
|    \\/     M anipulation  |                                                 |
\*---------------------------------------------------------------------------*/
FoamFile
{
    version     2.0;
    format      ascii;
    class       volScalarField;
    location    "0";
    object      Qr;
}
// * * * * * * * * * * * * * * * * * * * * * * * * * * * * * * * * * * * * * //

dimensions      [1 0 -3 0 0 0 0];

internalField   uniform 0;

boundaryField
{
    coupledWall_top
    {
        type            zeroGradient;
    }

    coupledWall_side
    {
        type            empty;
    }

    region0_to_pyrolysisRegion_coupledWall
    {
        type            mappedField;
        sampleRegion    region0;
        sampleMode      nearestPatchFace;
        samplePatch     region0_to_pyrolysisRegion_coupledWall;
        offset          (0 0 0);
        field       Qr; // this is the name of Qr field in region0
        setAverage      no;
        average         0;
        value           uniform 0;
    }
}


// ************************************************************************* //
