/*--------------------------------*- C++ -*----------------------------------*\
| =========                 |                                                 |
| \\      /  F ield         | OpenFOAM: The Open Source CFD Toolbox           |
<<<<<<< HEAD
|  \\    /   O peration     | Version:  3.0.x                                 |
=======
|  \\    /   O peration     | Version:  4.x                                   |
>>>>>>> 90e2f8d87bcd3a8588545c2de68a62d5b5c54a99
|   \\  /    A nd           | Web:      www.OpenFOAM.org                      |
|    \\/     M anipulation  |                                                 |
\*---------------------------------------------------------------------------*/
FoamFile
{
    version     2.0;
    format      ascii;
    class       dictionary;
    location    "constant";
    object      financialProperties;
}
// * * * * * * * * * * * * * * * * * * * * * * * * * * * * * * * * * * * * * //

strike          [0 1 0 0 0 0 0] 40;

r               [0 0 -1 0 0 0 0] 0.1;

sigma           [0 0 -0.5 0 0 0 0] 0.2;

s               [0 0 -1 0 0 0 0] 0;

xi              [0 0 -0.5 0 0 0 0] 0.1;

eta             [0 0 0 0 0 0 0] 0;

// ************************************************************************* //
