/*--------------------------------*- C++ -*----------------------------------*\
| =========                 |                                                 |
| \\      /  F ield         | OpenFOAM: The Open Source CFD Toolbox           |
<<<<<<< HEAD
|  \\    /   O peration     | Version:  3.0.x                                 |
=======
|  \\    /   O peration     | Version:  4.x                                   |
>>>>>>> 90e2f8d87bcd3a8588545c2de68a62d5b5c54a99
|   \\  /    A nd           | Web:      www.OpenFOAM.org                      |
|    \\/     M anipulation  |                                                 |
\*---------------------------------------------------------------------------*/
FoamFile
{
    version     2.0;
    format      ascii;
    class       volVectorField;
    location    "0/filmRegion";
    object      Uf;
}
// * * * * * * * * * * * * * * * * * * * * * * * * * * * * * * * * * * * * * //

dimensions      [0 1 -1 0 0 0 0];

internalField   uniform (0 0 0);

boundaryField
{
    coupledWall_top                 // Patch to Region0
    {
        type            slip;
    }

    region0_to_filmRegion_coupledWall // Patch to pyrolysis
    {
        type            noSlip;
    }

    outlet
    {
        type zeroGradient;
    }

    "side.*"
    {
        type            noSlip;
    }

    inlet
    {
        type            fixedValue;
        rho             rhof;
        value           uniform (0 0 -0.01);
    }
}

// ************************************************************************* //
