/*--------------------------------*- C++ -*----------------------------------*\
| =========                 |                                                 |
| \\      /  F ield         | OpenFOAM: The Open Source CFD Toolbox           |
<<<<<<< HEAD
|  \\    /   O peration     | Version:  3.0.x                                 |
=======
|  \\    /   O peration     | Version:  4.x                                   |
>>>>>>> 90e2f8d87bcd3a8588545c2de68a62d5b5c54a99
|   \\  /    A nd           | Web:      www.OpenFOAM.org                      |
|    \\/     M anipulation  |                                                 |
\*---------------------------------------------------------------------------*/
FoamFile
{
    version     2.0;
    format      ascii;
    class       dictionary;
    location    "system";
    object      fvSolution;
}
// * * * * * * * * * * * * * * * * * * * * * * * * * * * * * * * * * * * * * //

solvers
{
    "cellDisplacement.*"
    {
        solver          GAMG;
        tolerance       1e-5;
        relTol          0;
        smoother        GaussSeidel;
    }

    "pcorr.*"
    {
        solver          GAMG;
        tolerance       1e-2;
        relTol          0;
        smoother        GaussSeidel;
        maxIter         100;
    }

    p_gh
    {
        $pcorr;
        tolerance       1e-7;
        relTol          0.1;
    }

    p_ghFinal
    {
        $p_gh;
        relTol          0;
    }

    U
    {
        solver          smoothSolver;
        smoother        symGaussSeidel;
        tolerance       1e-7;
        relTol          0.1;
    }

    UFinal
    {
        $U;
        relTol          0;
    }
}

PIMPLE
{
    correctPhi          yes;
    momentumPredictor   no;
    nOuterCorrectors    1;
    nCorrectors         2;
    nNonOrthogonalCorrectors 0;
}


// ************************************************************************* //
