/*--------------------------------*- C++ -*----------------------------------*\
| =========                 |                                                 |
| \\      /  F ield         | OpenFOAM: The Open Source CFD Toolbox           |
<<<<<<< HEAD
|  \\    /   O peration     | Version:  3.0.x                                 |
=======
|  \\    /   O peration     | Version:  4.x                                   |
>>>>>>> 90e2f8d87bcd3a8588545c2de68a62d5b5c54a99
|   \\  /    A nd           | Web:      www.OpenFOAM.org                      |
|    \\/     M anipulation  |                                                 |
\*---------------------------------------------------------------------------*/
FoamFile
{
    version     2.0;
    format      ascii;
    class       volScalarField;
    object      T;
}
// * * * * * * * * * * * * * * * * * * * * * * * * * * * * * * * * * * * * * //

Tinlet          500;
Tout            298;    // Used for fixedValue boundary condition on walls

dimensions      [0 0 0 1 0 0 0];

internalField   uniform $Tinlet;

boundaryField
{
    inlet
    {
        type            fixedValue;
        value           uniform $Tinlet;
    }

    outlet
    {
        type            inletOutlet;
        inletValue      uniform $Tout;
        value           $inletValue;
    }

    wall
    {
        type            fixedValue;
        value           uniform $Tout;
    }

    #includeEtc "caseDicts/setConstraintTypes"
}

// ************************************************************************* //
