/*--------------------------------*- C++ -*----------------------------------*\
| =========                 |                                                 |
| \\      /  F ield         | OpenFOAM: The Open Source CFD Toolbox           |
<<<<<<< HEAD
|  \\    /   O peration     | Version:  3.0.x                                 |
=======
|  \\    /   O peration     | Version:  4.x                                   |
>>>>>>> 90e2f8d87bcd3a8588545c2de68a62d5b5c54a99
|   \\  /    A nd           | Web:      www.OpenFOAM.org                      |
|    \\/     M anipulation  |                                                 |
\*---------------------------------------------------------------------------*/
FoamFile
{
    version     2.0;
    format      ascii;
    class       dictionary;
    location    "system";
    object      fvSchemes;
}
// * * * * * * * * * * * * * * * * * * * * * * * * * * * * * * * * * * * * * //

ddtSchemes
{
    default         Euler;
}

gradSchemes
{
    default         Gauss linear;
}

divSchemes
{
    default         none;
    div(phi,U)      Gauss LUST grad(U);
    div(phi,k)      Gauss limitedLinear 1;
    div(phi,K)      Gauss limitedLinear 1;
    div(phi,Yi_h) Gauss multivariateSelection
    {
        O2              limitedLinear01 1;
        N2              limitedLinear01 1;
        CH4             limitedLinear01 1;
        C3H8            limitedLinear01 1;
        CORRUGATED      limitedLinear01 1;
        CH2O            limitedLinear01 1;
        H2O             limitedLinear01 1;
        CO2             limitedLinear01 1;
        h               limitedLinear 1;
    };

    div(((rho*nuEff)*dev2(T(grad(U))))) Gauss linear;
    div(phiU,p)     Gauss linear;
    div(Ji,Ii_h)    Gauss upwind;
}

laplacianSchemes
{
    default         Gauss linear corrected;
}

interpolationSchemes
{
    default         linear;
}

snGradSchemes
{
    default         corrected;
}


// ************************************************************************* //
