/*--------------------------------*- C++ -*----------------------------------*\
| =========                 |                                                 |
| \\      /  F ield         | OpenFOAM: The Open Source CFD Toolbox           |
<<<<<<< HEAD
|  \\    /   O peration     | Version:  3.0.x                                 |
=======
|  \\    /   O peration     | Version:  4.x                                   |
>>>>>>> 90e2f8d87bcd3a8588545c2de68a62d5b5c54a99
|   \\  /    A nd           | Web:      www.OpenFOAM.org                      |
|    \\/     M anipulation  |                                                 |
\*---------------------------------------------------------------------------*/
FoamFile
{
    version     2.0;
    format      ascii;
    class       volScalarField;
    object      p;
}
// * * * * * * * * * * * * * * * * * * * * * * * * * * * * * * * * * * * * * //

dimensions      [1 -1 -2 0 0 0 0];

internalField   uniform 100000;

boundaryField
{
    INLE1
    {
        type            zeroGradient;
    }

    OUTL2
    {
        type            waveTransmissive;
        field           p;
        psi             thermo:psi;
        gamma           1.3;
        fieldInf        100000;
        lInf            1;
        value           uniform 100000;
    }

    SYMP3
    {
        type            empty;
    }

    WALL10
    {
        type            zeroGradient;
    }
}

// ************************************************************************* //
