/*--------------------------------*- C++ -*----------------------------------*\
| =========                 |                                                 |
| \\      /  F ield         | OpenFOAM: The Open Source CFD Toolbox           |
<<<<<<< HEAD
|  \\    /   O peration     | Version:  3.0.x                                 |
=======
|  \\    /   O peration     | Version:  4.x                                   |
>>>>>>> 90e2f8d87bcd3a8588545c2de68a62d5b5c54a99
|   \\  /    A nd           | Web:      www.OpenFOAM.org                      |
|    \\/     M anipulation  |                                                 |
\*---------------------------------------------------------------------------*/
FoamFile
{
    version     2.0;
    format      ascii;
    class       dictionary;
    location    "system";
    object      controlDict;
}
// * * * * * * * * * * * * * * * * * * * * * * * * * * * * * * * * * * * * * //

application     dsmcFoam;

startFrom       startTime;

startTime       0;

stopAt          endTime;

endTime         1e-3;

deltaT          1e-6;

writeControl    runTime;

writeInterval   1e-4;

purgeWrite      0;

writeFormat     ascii;

writePrecision  10;

writeCompression off;

timeFormat      general;

timePrecision   6;

runTimeModifiable true;

adjustTimeStep  no;

functions
{
    fieldAverage1
    {
        type            fieldAverage;
        libs            ("libfieldFunctionObjects.so");
        writeControl    writeTime;

        fields
        (
            rhoN
            {
                mean        on;
                prime2Mean  off;
                base        time;
            }
            rhoM
            {
                mean        on;
                prime2Mean  off;
                base        time;
            }
            dsmcRhoN
            {
                mean        on;
                prime2Mean  off;
                base        time;
            }
            momentum
            {
                mean        on;
                prime2Mean  off;
                base        time;
            }
            linearKE
            {
                mean        on;
                prime2Mean  off;
                base        time;
            }
            internalE
            {
                mean        on;
                prime2Mean  off;
                base        time;
            }
            iDof
            {
                mean        on;
                prime2Mean  off;
                base        time;
            }
            q
            {
                mean        on;
                prime2Mean  off;
                base        time;
            }
            fD
            {
                mean        on;
                prime2Mean  off;
                base        time;
            }
        );
    }
    dsmcFields1
    {
        type            dsmcFields;
        libs            ("liblagrangianFunctionObjects.so");
        writeControl    writeTime;
    }
}

// ************************************************************************* //
