/*--------------------------------*- C++ -*----------------------------------*\
| =========                 |                                                 |
| \\      /  F ield         | OpenFOAM: The Open Source CFD Toolbox           |
<<<<<<< HEAD
|  \\    /   O peration     | Version:  3.0.x                                 |
=======
|  \\    /   O peration     | Version:  4.x                                   |
>>>>>>> 90e2f8d87bcd3a8588545c2de68a62d5b5c54a99
|   \\  /    A nd           | Web:      www.OpenFOAM.org                      |
|    \\/     M anipulation  |                                                 |
\*---------------------------------------------------------------------------*/
FoamFile
{
    version     2.0;
    format      ascii;
    class       dictionary;
    object      topoSetDict;
}

// * * * * * * * * * * * * * * * * * * * * * * * * * * * * * * * * * * * * * //

actions
(
    {
        name    boundaryFaces;
        type    faceSet;
        action  new;
        source  patchToFace;
        sourceInfo
        {
            name outerCylinder;
        }
    }

    {
        name    outletFaces;
        type    faceSet;
        action  new;
        source  faceToFace;
        sourceInfo
        {
            set boundaryFaces;
        }
    }

    {
        name    inletFaces;
        type    faceSet;
        action  new;
        source  faceToFace;
        sourceInfo
        {
            set boundaryFaces;
        }
    }

    {
        name    outletFaces;
        type    faceSet;
        action  subset;
        source  normalToFace;
        sourceInfo
        {
            normal  (0 -1 0);   // Vector
            cos     0.3;        // Tolerance (max cos of angle)
        }
    }

    {
        name    inletFaces;
        type    faceSet;
        action  subset;
        source  normalToFace;
        sourceInfo
        {
            normal  (0 1 0);    // Vector
            cos     0.3;        // Tolerance (max cos of angle)
        }
    }
);

// ************************************************************************* //
