/*--------------------------------*- C++ -*----------------------------------*\
| =========                 |                                                 |
| \\      /  F ield         | OpenFOAM: The Open Source CFD Toolbox           |
<<<<<<< HEAD
|  \\    /   O peration     | Version:  3.0.x                                 |
=======
|  \\    /   O peration     | Version:  4.x                                   |
>>>>>>> 90e2f8d87bcd3a8588545c2de68a62d5b5c54a99
|   \\  /    A nd           | Web:      www.OpenFOAM.org                      |
|    \\/     M anipulation  |                                                 |
\*---------------------------------------------------------------------------*/
FoamFile
{
    version     2.0;
    format      ascii;
    class       dictionary;
    location    "system";
    object      fvSolution;
}
// * * * * * * * * * * * * * * * * * * * * * * * * * * * * * * * * * * * * * //

solvers
{
    p
    {
        solver          PBiCG;
        preconditioner  DILU;
        tolerance       1e-06;
        relTol          0.01;
    }

    pFinal
    {
        $p;
        relTol          0;
    }

    pcorr
    {
        solver          PCG;
        preconditioner  DIC;
        tolerance       1e-2;
        relTol          0;
    }

    "rho.*"
    {
        solver          diagonal;
        tolerance       1e-05;
        relTol          0;
    }

    "(U|h|e|R|k|epsilon|omega)"
    {
        solver          smoothSolver;
        smoother        symGaussSeidel;
        tolerance       1e-05;
        relTol          0.1;
    }

    "(U|h|e|R|k|epsilon|omega)Final"
    {
        $U;
        relTol          0;
    }

    cellMotionUx
    {
        solver          PCG;
        preconditioner  DIC;
        tolerance       1e-08;
        relTol          0;
    }
}

PIMPLE
{
    momentumPredictor   yes;
    correctPhi          yes;
    nOuterCorrectors    2;
    nCorrectors         2;
    transonic           yes;
    nNonOrthogonalCorrectors 0;

    rhoMin              0.1;
    rhoMax              100.0;
}

relaxationFactors
{
    equations
    {
        ".*"        1;
    }
}


// ************************************************************************* //
