/*--------------------------------*- C++ -*----------------------------------*\
| =========                 |                                                 |
| \\      /  F ield         | OpenFOAM: The Open Source CFD Toolbox           |
<<<<<<< HEAD
|  \\    /   O peration     | Version:  3.0.x                                 |
=======
|  \\    /   O peration     | Version:  4.x                                   |
>>>>>>> 90e2f8d87bcd3a8588545c2de68a62d5b5c54a99
|   \\  /    A nd           | Web:      www.OpenFOAM.org                      |
|    \\/     M anipulation  |                                                 |
\*---------------------------------------------------------------------------*/
FoamFile
{
    version     2.0;
    format      ascii;
    class       dictionary;
    location    "constant";
    object      fvOptions;
}
// * * * * * * * * * * * * * * * * * * * * * * * * * * * * * * * * * * * * * //

disk1
{
    type            actuationDiskSource;
    active          on;

    actuationDiskSourceCoeffs
    {
        fields      (U);

        selectionMode   cellSet;
        cellSet         actuationDisk1;
        diskDir         (1 0 0);    // Orientation of the disk
        Cp              0.386;
        Ct              0.58;
        diskArea        40;
        upstreamPoint   (581849 4785810 1065);
    }
}

disk2
{
    type            actuationDiskSource;
    active          on;

    actuationDiskSourceCoeffs
    {
        fields      (U);

        selectionMode   cellSet;
        cellSet         actuationDisk2;
        diskDir         (1 0 0);    // Orientation of the disk
        Cp              0.53;
        Ct              0.58;
        diskArea        40;
        upstreamPoint   (581753 4785663 1070);
    }
}


// ************************************************************************* //
