/*--------------------------------*- C++ -*----------------------------------*\
| =========                 |                                                 |
| \\      /  F ield         | OpenFOAM: The Open Source CFD Toolbox           |
<<<<<<< HEAD
|  \\    /   O peration     | Version:  3.0.x                                 |
=======
|  \\    /   O peration     | Version:  4.x                                   |
>>>>>>> 90e2f8d87bcd3a8588545c2de68a62d5b5c54a99
|   \\  /    A nd           | Web:      www.OpenFOAM.org                      |
|    \\/     M anipulation  |                                                 |
\*---------------------------------------------------------------------------*/
FoamFile
{
    version     2.0;
    format      ascii;
    class       dictionary;
    location    "constant";
    object      scalarListList;
}
// * * * * * * * * * * * * * * * * * * * * * * * * * * * * * * * * * * * * * //
// (x y z) (u v w) d rho mDot T Cp (Y0..Y2) (Yg0..YgN) (Yl0..YlN) (Ys0..YsN)
(
    (0.1 0.32 0.0) (0.5  0.25 0.0) 0.001 1000 0.2 300 4200 (0 1 0) () (1) ()
    (0.1 0.44 0.0) (0.5  0.10 0.0) 0.001 1000 0.2 300 4200 (0 1 0) () (1) ()
    (0.1 0.56 0.0) (0.5 -0.10 0.0) 0.001 1000 0.2 300 4200 (0 1 0) () (1) ()
    (0.1 0.68 0.0) (0.5 -0.25 0.0) 0.001 1000 0.2 300 4200 (0 1 0) () (1) ()
);


// ************************************************************************* //
