/*--------------------------------*- C++ -*----------------------------------*\
| =========                 |                                                 |
| \\      /  F ield         | OpenFOAM: The Open Source CFD Toolbox           |
<<<<<<< HEAD
|  \\    /   O peration     | Version:  3.0.x                                 |
=======
|  \\    /   O peration     | Version:  4.x                                   |
>>>>>>> 90e2f8d87bcd3a8588545c2de68a62d5b5c54a99
|   \\  /    A nd           | Web:      www.OpenFOAM.org                      |
|    \\/     M anipulation  |                                                 |
\*---------------------------------------------------------------------------*/
FoamFile
{
    version     2.0;
    format      ascii;
    class       dictionary;
    location    "system";
    object      controlDict;
}
// * * * * * * * * * * * * * * * * * * * * * * * * * * * * * * * * * * * * * //

application     sonicFoam;

startFrom       latestTime;

startTime       0;

stopAt          endTime;

endTime         0.01;

deltaT          4e-08;

writeControl    runTime;

writeInterval   2e-04;

purgeWrite      0;

writeFormat     ascii;

writePrecision  6;

writeCompression off;

timeFormat      general;

timePrecision   6;

runTimeModifiable true;

functions
{
    forces
    {
        type            forceCoeffs;
        libs ( "libforces.so" );
        writeControl   timeStep;
        writeInterval  1;

        patches
        (
            WALL10
        );

        log         true;
        rhoInf      1;
        CofR        (0 0 0);
        liftDir     (-0.239733 0.970839 0);
        dragDir     (0.970839 0.239733 0);
        pitchAxis   (0 0 1);
        magUInf     618.022;
        lRef        1;
        Aref        1;
    }
}

// ************************************************************************* //
