/*--------------------------------*- C++ -*----------------------------------*\
| =========                 |                                                 |
| \\      /  F ield         | OpenFOAM: The Open Source CFD Toolbox           |
<<<<<<< HEAD
|  \\    /   O peration     | Version:  3.0.x                                 |
=======
|  \\    /   O peration     | Version:  4.x                                   |
>>>>>>> 90e2f8d87bcd3a8588545c2de68a62d5b5c54a99
|   \\  /    A nd           | Web:      www.OpenFOAM.org                      |
|    \\/     M anipulation  |                                                 |
\*---------------------------------------------------------------------------*/
FoamFile
{
    version     2.0;
    format      ascii;
    class       dictionary;
    location    "system";
    object      setFieldsDict;
}
// * * * * * * * * * * * * * * * * * * * * * * * * * * * * * * * * * * * * * //

defaultFieldValues
(
    volScalarFieldValue alpha.air 1
    volScalarFieldValue alpha.water 0
    volScalarFieldValue alpha.oil 0
    volScalarFieldValue alpha.mercury 0
);

regions
(
    boxToCell
    {
        box (0 0 -1) (1 1 1);
        fieldValues
        (
            volScalarFieldValue alpha.water 1
            volScalarFieldValue alpha.oil 0
            volScalarFieldValue alpha.mercury 0
            volScalarFieldValue alpha.air 0
        );
    }
    boxToCell
    {
        box (0 -1 -1) (1 0 1);
        fieldValues
        (
            volScalarFieldValue alpha.water 0
            volScalarFieldValue alpha.oil 1
            volScalarFieldValue alpha.mercury 0
            volScalarFieldValue alpha.air 0
        );
    }
    boxToCell
    {
        box (-1 -1 -1) (0 0 1);
        fieldValues
        (
            volScalarFieldValue alpha.water 0
            volScalarFieldValue alpha.oil 0
            volScalarFieldValue alpha.mercury 1
            volScalarFieldValue alpha.air 0
        );
    }
);


// ************************************************************************* //
