/*--------------------------------*- C++ -*----------------------------------*\
| =========                 |                                                 |
| \\      /  F ield         | OpenFOAM: The Open Source CFD Toolbox           |
<<<<<<< HEAD
|  \\    /   O peration     | Version:  3.0.x                                 |
=======
|  \\    /   O peration     | Version:  4.x                                   |
>>>>>>> 90e2f8d87bcd3a8588545c2de68a62d5b5c54a99
|   \\  /    A nd           | Web:      www.OpenFOAM.org                      |
|    \\/     M anipulation  |                                                 |
\*---------------------------------------------------------------------------*/
FoamFile
{
    version     2.0;
    format      ascii;
    class       volVectorField;
    location    "0";
    object      Urel;
}
// * * * * * * * * * * * * * * * * * * * * * * * * * * * * * * * * * * * * * //

dimensions      [0 1 -1 0 0 0 0];

internalField   uniform (0 0 -10);

boundaryField
{
    inlet
    {
        type            SRFVelocity;
        inletValue      uniform (0 0 -10);
        relative        no;
        value           uniform (0 0 0);
    }
    outlet
    {
        type            pressureInletOutletVelocity;
        value           $internalField;
    }
    innerWall
    {
        type            noSlip;
    }
    outerWall
    {
        type            SRFVelocity;
        inletValue      uniform (0 0 0);
        relative        no;
        value           uniform (0 0 0);
    }
    cyclic_half0
    {
        type            cyclic;
    }
    cyclic_half1
    {
        type            cyclic;
    }
}


// ************************************************************************* //
