/*---------------------------------------------------------------------------*\
| =========                 |                                                 |
| \\      /  F ield         | OpenFOAM: The Open Source CFD Toolbox           |
<<<<<<< HEAD
|  \\    /   O peration     | Version:  3.0.x                                 |
=======
|  \\    /   O peration     | Version:  4.x                                   |
>>>>>>> 90e2f8d87bcd3a8588545c2de68a62d5b5c54a99
|   \\  /    A nd           | Web:      www.OpenFOAM.org                      |
|    \\/     M anipulation  |                                                 |
\*---------------------------------------------------------------------------*/
FoamFile
{
    version     2.0;
    format      ascii;
    class       dictionary;
    object      blockMeshDict;
}
// * * * * * * * * * * * * * * * * * * * * * * * * * * * * * * * * * * * * * //

convertToMeters 1;

vertices
(
    (-0.5 0 -0.01)
    ( 0.5 0 -0.01)
    ( 0.5 1 -0.01)
    (-0.5 1 -0.01)
    (-0.5 0  0.01)
    ( 0.5 0  0.01)
    ( 0.5 1  0.01)
    (-0.5 1  0.01)

);

blocks
(
    hex (0 1 2 3 4 5 6 7) (150 150 1) simpleGrading (1 1 1)
);

edges
(
);

boundary
(
    base
    {
        type patch;
        faces
        (
            (0 1 5 4)
        );
    }
    outlet
    {
        type patch;
        faces
        (
            (3 2 6 7)
        );
    }
    sides
    {
        type patch;
        faces
        (
            (1 5 6 2)
            (0 4 7 3)
        );
    }
    frontAndBack
    {
        type empty;
        faces
        (
            (0 1 2 3)
            (4 5 6 7)
        );
    }
);

mergePatchPairs
(
);

// ************************************************************************* //
