/*--------------------------------*- C++ -*----------------------------------*\
| =========                 |                                                 |
| \\      /  F ield         | OpenFOAM: The Open Source CFD Toolbox           |
<<<<<<< HEAD
|  \\    /   O peration     | Version:  3.0.x                                 |
=======
|  \\    /   O peration     | Version:  4.x                                   |
>>>>>>> 90e2f8d87bcd3a8588545c2de68a62d5b5c54a99
|   \\  /    A nd           | Web:      www.OpenFOAM.org                      |
|    \\/     M anipulation  |                                                 |
\*---------------------------------------------------------------------------*/
FoamFile
{
    version     2.0;
    format      ascii;
    class       dictionary;
    object      createBafflesDict;
}
// * * * * * * * * * * * * * * * * * * * * * * * * * * * * * * * * * * * * * //

internalFacesOnly true;

baffles
{
    baffleFaces
    {
        type        faceZone;
        zoneName    rotatingZone;

        patches
        {
            master
            {
                name            AMI1;
                type            cyclicAMI;
                matchTolerance  0.0001;
                neighbourPatch  AMI2;
                transform       noOrdering;
            }
            slave
            {
                $master;
                name            AMI2;
                neighbourPatch  AMI1;
            }
        }
    }
}

// ************************************************************************* //
