/*--------------------------------*- C++ -*----------------------------------*\
| =========                 |                                                 |
| \\      /  F ield         | OpenFOAM: The Open Source CFD Toolbox           |
<<<<<<< HEAD
|  \\    /   O peration     | Version:  3.0.x                                 |
=======
|  \\    /   O peration     | Version:  4.x                                   |
>>>>>>> 90e2f8d87bcd3a8588545c2de68a62d5b5c54a99
|   \\  /    A nd           | Web:      www.OpenFOAM.org                      |
|    \\/     M anipulation  |                                                 |
\*---------------------------------------------------------------------------*/
FoamFile
{
    version     2.0;
    format      ascii;
    class       dictionary;
    location    "system";
    object      fvSolution;
}
// * * * * * * * * * * * * * * * * * * * * * * * * * * * * * * * * * * * * * //

solvers
{
    p
    {
        solver          GAMG;
        tolerance       1e-6;
        relTol          0.05;

        smoother        GaussSeidel;


        nCellsInCoarsestLevel 50;
    }

    pFinal
    {
        $p;
        relTol          0;
    }

    "(U|k|B|nuTilda)"
    {
        solver          smoothSolver;
        smoother        symGaussSeidel;
        tolerance       1e-7;
        relTol          0;
    }
}

PISO
{
    nCorrectors     3;
    nNonOrthogonalCorrectors 0;
}

relaxationFactors
{
    "U.*"               1;
    "nuTilda.*"         1;
}


// ************************************************************************* //
