/*--------------------------------*- C++ -*----------------------------------*\
| =========                 |                                                 |
| \\      /  F ield         | OpenFOAM: The Open Source CFD Toolbox           |
<<<<<<< HEAD
|  \\    /   O peration     | Version:  3.0.x                                 |
=======
|  \\    /   O peration     | Version:  4.x                                   |
>>>>>>> 90e2f8d87bcd3a8588545c2de68a62d5b5c54a99
|   \\  /    A nd           | Web:      www.OpenFOAM.org                      |
|    \\/     M anipulation  |                                                 |
\*---------------------------------------------------------------------------*/
FoamFile
{
    version     2.0;
    format      ascii;
    class       dictionary;
    location    "constant";
    object      thermophysicalProperties.steam;
}
// * * * * * * * * * * * * * * * * * * * * * * * * * * * * * * * * * * * * * //

thermoType
{
    type            heRhoThermo;
    mixture         multiComponentMixture;
    transport       const;
    thermo          hRefConst;
    equationOfState perfectGas;
    specie          specie;
    energy          sensibleInternalEnergy;
}

species
(
    water
);

inertSpecie water;

water
{
    specie
    {
        nMoles          1;
        molWeight       18.0153;
    }

    thermodynamics
    {
        Hf          0;
        Cp          2078.4;
        Tref        372.76;
        Href        2675500;
    }

    transport
    {
        mu          1.2256e-5;
        Pr          2.289;
    }
}


// ************************************************************************* //
