/*--------------------------------*- C++ -*----------------------------------*\
| =========                 |                                                 |
| \\      /  F ield         | OpenFOAM: The Open Source CFD Toolbox           |
<<<<<<< HEAD
|  \\    /   O peration     | Version:  3.0.x                                 |
=======
|  \\    /   O peration     | Version:  4.x                                   |
>>>>>>> 90e2f8d87bcd3a8588545c2de68a62d5b5c54a99
|   \\  /    A nd           | Web:      www.OpenFOAM.org                      |
|    \\/     M anipulation  |                                                 |
\*---------------------------------------------------------------------------*/
FoamFile
{
    version     2.0;
    format      ascii;
    class       volScalarField;
    object      k;
}
// * * * * * * * * * * * * * * * * * * * * * * * * * * * * * * * * * * * * * //

dimensions      [0 2 -2 0 0 0 0];

internalField   uniform 0.000259;

boundaryField
{
    SYMP3
    {
        type            slip;
    }

    INLE1
    {
        type            fixedValue;
        value           uniform 0.000259;
    }

    OUTL9
    {
        type            zeroGradient;
    }

    OUTL10
    {
        type            zeroGradient;
    }

    OUTL11
    {
        type            zeroGradient;
    }

    OUTL12
    {
        type            zeroGradient;
    }

    "WALL.*"
    {
        type            kqRWallFunction;
        value           $internalField;
    }

    OUTL15
    {
        type            inletOutlet;
        inletValue      uniform 0.000259;
    }
}

// ************************************************************************* //
