/*--------------------------------*- C++ -*----------------------------------*\
| =========                 |                                                 |
| \\      /  F ield         | OpenFOAM: The Open Source CFD Toolbox           |
<<<<<<< HEAD
|  \\    /   O peration     | Version:  3.0.x                                 |
=======
|  \\    /   O peration     | Version:  4.x                                   |
>>>>>>> 90e2f8d87bcd3a8588545c2de68a62d5b5c54a99
|   \\  /    A nd           | Web:      www.OpenFOAM.org                      |
|    \\/     M anipulation  |                                                 |
\*---------------------------------------------------------------------------*/

FoamFile
{
    version     2.0;
    format      ascii;
    location    "";
    class       vectorField;
    object      coalCloudPositions;
}

// * * * * * * * * * * * * * * * * * * * * * * * * * * * * * * * * * * * * * //
(
(0.005 0.5 0.05)
(0.010 0.5 0.05)
(0.015 0.5 0.05)
(0.020 0.5 0.05)
(0.025 0.5 0.05)
(0.030 0.5 0.05)
(0.035 0.5 0.05)
(0.040 0.5 0.05)
(0.045 0.5 0.05)
(0.005 0.6 0.05)
(0.010 0.6 0.05)
(0.015 0.6 0.05)
(0.020 0.6 0.05)
(0.025 0.6 0.05)
(0.030 0.6 0.05)
(0.035 0.6 0.05)
(0.040 0.6 0.05)
(0.045 0.6 0.05)
(0.005 0.7 0.05)
(0.010 0.7 0.05)
(0.015 0.7 0.05)
(0.020 0.7 0.05)
(0.025 0.7 0.05)
(0.030 0.7 0.05)
(0.035 0.7 0.05)
(0.040 0.7 0.05)
(0.045 0.7 0.05)
)
// ************************************************************************* //
