/*--------------------------------*- C++ -*----------------------------------*\
| =========                 |                                                 |
| \\      /  F ield         | OpenFOAM: The Open Source CFD Toolbox           |
<<<<<<< HEAD
|  \\    /   O peration     | Version:  3.0.x                                 |
=======
|  \\    /   O peration     | Version:  4.x                                   |
>>>>>>> 90e2f8d87bcd3a8588545c2de68a62d5b5c54a99
|   \\  /    A nd           | Web:      www.OpenFOAM.org                      |
|    \\/     M anipulation  |                                                 |
\*---------------------------------------------------------------------------*/
FoamFile
{
    version     2.0;
    format      ascii;
    location    "";
    class       vectorField;
    object      limestonePositions;
}
// * * * * * * * * * * * * * * * * * * * * * * * * * * * * * * * * * * * * * //
(
(0.0075 0.55 0.05)
(0.0125 0.55 0.05)
(0.0175 0.55 0.05)
(0.0225 0.55 0.05)
(0.0275 0.55 0.05)
(0.0325 0.55 0.05)
(0.0375 0.55 0.05)
(0.0425 0.55 0.05)
(0.0475 0.55 0.05)
(0.0075 0.45 0.05)
(0.0125 0.45 0.05)
(0.0175 0.45 0.05)
(0.0225 0.45 0.05)
(0.0275 0.45 0.05)
(0.0325 0.45 0.05)
(0.0375 0.45 0.05)
(0.0425 0.45 0.05)
(0.0475 0.45 0.05)
)
// ************************************************************************* //
