/*--------------------------------*- C++ -*----------------------------------*\
| =========                 |                                                 |
| \\      /  F ield         | OpenFOAM: The Open Source CFD Toolbox           |
<<<<<<< HEAD
|  \\    /   O peration     | Version:  3.0.x                                 |
=======
|  \\    /   O peration     | Version:  4.x                                   |
>>>>>>> 90e2f8d87bcd3a8588545c2de68a62d5b5c54a99
|   \\  /    A nd           | Web:      www.OpenFOAM.org                      |
|    \\/     M anipulation  |                                                 |
\*---------------------------------------------------------------------------*/
FoamFile
{
    version     2.0;
    format      ascii;
    class       dictionary;
    object      fvSchemes;
}
// * * * * * * * * * * * * * * * * * * * * * * * * * * * * * * * * * * * * * //

ddtSchemes
{
    default             Euler;
}

interpolationSchemes
{
    default             linear;
}

divSchemes
{
    default             none;
    div(rhoPhi,U)       Gauss linearUpwind grad(U);
    div(phi,omega)      Gauss linearUpwind grad(omega);
    div(phi,k)          Gauss linearUpwind grad(k);
    div(phi,alpha)      Gauss vanLeer;
    div(phirb,alpha)    Gauss linear;
    div(((rho*nuEff)*dev2(T(grad(U))))) Gauss linear;
}

gradSchemes
{
    default             Gauss linear;
}

laplacianSchemes
{
    default             Gauss linear limited corrected 0.5;
}

snGradSchemes
{
    default             limited corrected 0.5;
}


// ************************************************************************* //
