/*--------------------------------*- C++ -*----------------------------------*\
| =========                 |                                                 |
| \\      /  F ield         | OpenFOAM: The Open Source CFD Toolbox           |
<<<<<<< HEAD
|  \\    /   O peration     | Version:  3.0.x                                 |
=======
|  \\    /   O peration     | Version:  4.x                                   |
>>>>>>> 90e2f8d87bcd3a8588545c2de68a62d5b5c54a99
|   \\  /    A nd           | Web:      www.OpenFOAM.org                      |
|    \\/     M anipulation  |                                                 |
\*---------------------------------------------------------------------------*/
FoamFile
{
    version     2.0;
    format      ascii;
    class       dictionary;
    object      fvSolution;
}
// * * * * * * * * * * * * * * * * * * * * * * * * * * * * * * * * * * * * * //

solvers
{
    "alpha.water.*"
    {
        cAlpha          0;
        nAlphaCorr      2;
        nAlphaSubCycles 1;

        MULESCorr       yes;
        nLimiterIter    5;

        solver          smoothSolver;
        smoother        symGaussSeidel;
        tolerance       1e-8;
        relTol          0;
        maxIter         10;
    };

    "U.*"
    {
        solver          smoothSolver;
        smoother        symGaussSeidel;
        tolerance       1e-6;
        relTol          0;
    };

    p_rgh
    {
        solver          GAMG;
        tolerance       1e-8;
        relTol          0.1;

        smoother        DICGaussSeidel;



        maxIter         50;
    };

    p_rghFinal
    {
        solver          PCG;
        preconditioner
        {
            preconditioner  GAMG;

            tolerance       1e-6;
            relTol          0;

            nVcycles        2;

            smoother        DICGaussSeidel;

        };
        tolerance       1e-7;
        relTol          0;
        maxIter         50;
    };

    pcorr
    {
        $p_rgh;
        relTol          0;
    };

    Phi
    {
        $p_rgh;
        relTol          0;
    };
}

potentialFlow
{
    nNonOrthogonalCorrectors   3;
}

PIMPLE
{
    momentumPredictor           no;
    nOuterCorrectors            1;
    nCorrectors                 3;
    nNonOrthogonalCorrectors    0;
}

relaxationFactors
{
    equations
    {
        "U.*"                   1;
    }
}


// ************************************************************************* //
