/*--------------------------------*- C++ -*----------------------------------*\
| =========                 |                                                 |
| \\      /  F ield         | OpenFOAM: The Open Source CFD Toolbox           |
<<<<<<< HEAD
|  \\    /   O peration     | Version:  3.0.x                                 |
=======
|  \\    /   O peration     | Version:  4.x                                   |
>>>>>>> 90e2f8d87bcd3a8588545c2de68a62d5b5c54a99
|   \\  /    A nd           | Web:      www.OpenFOAM.org                      |
|    \\/     M anipulation  |                                                 |
\*---------------------------------------------------------------------------*/
FoamFile
{
    version     2.0;
    format      ascii;
    class       dictionary;
    object      extrudeToRegionMeshDict;
}
// * * * * * * * * * * * * * * * * * * * * * * * * * * * * * * * * * * * * * //

region          panelRegion;

faceZones       (fRight_zone fLeft_zone);

oneD            true;

sampleMode      nearestPatchFace;

oneDPolyPatchType empty; //wedge

extrudeModel    linearNormal;

nLayers         5;

expansionRatio  1;

adaptMesh       true; // mapped for both

linearNormalCoeffs
{
    thickness       0.01;
}

// * * * * * * * * * * * * * * * * * * * * * * * * * * * * * * * * * * * * * //
