/*--------------------------------*- C++ -*----------------------------------*\
| =========                 |                                                 |
| \\      /  F ield         | OpenFOAM: The Open Source CFD Toolbox           |
<<<<<<< HEAD
|  \\    /   O peration     | Version:  3.0.x                                 |
=======
|  \\    /   O peration     | Version:  4.x                                   |
>>>>>>> 90e2f8d87bcd3a8588545c2de68a62d5b5c54a99
|   \\  /    A nd           | Web:      www.OpenFOAM.org                      |
|    \\/     M anipulation  |                                                 |
\*---------------------------------------------------------------------------*/
FoamFile
{
    version     2.0;
    format      ascii;
    class       dictionary;
    object      topoSetDict;
}

// * * * * * * * * * * * * * * * * * * * * * * * * * * * * * * * * * * * * * //

actions
(
    {
        name    fLeft;
        type    faceSet;
        action  new;
        source  boxToFace;
        sourceInfo
        {
            box (-0.151 0 -0.3)(-0.14999 2.4 0.3);
        }
    }
    {
        name    fRight;
        type    faceSet;
        action  new;
        source  boxToFace;
        sourceInfo
        {
            box (0.14999 0 -0.3)(0.151 2.4 0.3);
        }
    }

    {
        name    fRight_zone;
        type    faceZoneSet;
        action  new;
        source  setToFaceZone;
        sourceInfo
        {
            faceSet fRight;
        }
    }

    {
        name    fLeft_zone;
        type    faceZoneSet;
        action  new;
        source  setToFaceZone;
        sourceInfo
        {
            faceSet fLeft;
        }
    }

);


// ************************************************************************* //
