/*--------------------------------*- C++ -*----------------------------------*\
| =========                 |                                                 |
| \\      /  F ield         | OpenFOAM: The Open Source CFD Toolbox           |
<<<<<<< HEAD
|  \\    /   O peration     | Version:  3.0.x                                 |
=======
|  \\    /   O peration     | Version:  4.x                                   |
>>>>>>> 90e2f8d87bcd3a8588545c2de68a62d5b5c54a99
|   \\  /    A nd           | Web:      www.OpenFOAM.org                      |
|    \\/     M anipulation  |                                                 |
\*---------------------------------------------------------------------------*/
FoamFile
{
    version     2.0;
    format      binary;
    class       volVectorField;
    location    "0";
    object      U.air;
}
// * * * * * * * * * * * * * * * * * * * * * * * * * * * * * * * * * * * * * //

dimensions      [0 1 -1 0 0 0 0];

internalField   uniform (0 0 0);

boundaryField
{
    walls
    {
        type            noSlip;
    }

    top
    {
        type            pressureInletOutletVelocity;
        phi             phi.air;
        inletValue      uniform (0 0 0);
        value           uniform (0 0 0);
    }

    bottom
    {
        type            interstitialInletVelocity;
        inletVelocity   uniform (0 0 1.875);
        value           uniform (0 0 1.875);
        phi             phi.air;
        alpha           alpha.air;
    }

    frontAndBack
    {
        type            symmetry;
    }
}


// ************************************************************************* //
