/*--------------------------------*- C++ -*----------------------------------*\
| =========                 |                                                 |
| \\      /  F ield         | OpenFOAM: The Open Source CFD Toolbox           |
<<<<<<< HEAD
|  \\    /   O peration     | Version:  3.0.x                                 |
=======
|  \\    /   O peration     | Version:  4.x                                   |
>>>>>>> 90e2f8d87bcd3a8588545c2de68a62d5b5c54a99
|   \\  /    A nd           | Web:      www.OpenFOAM.org                      |
|    \\/     M anipulation  |                                                 |
\*---------------------------------------------------------------------------*/
FoamFile
{
    version     2.0;
    format      ascii;
    class       dictionary;
    location    "system";
    object      topoSetDict.1;
}
// * * * * * * * * * * * * * * * * * * * * * * * * * * * * * * * * * * * * * //

actions
(
   {
        name    blockedFacesSet;
        type    faceSet;
        action  new;
        source  boxToFace;
        sourceInfo
        {
            box (1 1 0.99) (2 2 1);
        }
    }

    {
        name    blockedCellsSet;
        type    cellSet;
        action  new;
        source  boxToCell;
        sourceInfo
        {
            box (2.4 2.4 0) (3 3 1);
        }
    }

    {
        name    blockedCellsSet;
        type    cellSet;
        action  add;
        source  boxToCell;
        sourceInfo
        {
            box (0 0 0) (0.6 0.6 1);
        }
    }

    {
        name    blockedFacesSet;
        type    faceSet;
        action  add;
        source  cellToFace;
        sourceInfo
        {
            set     blockedCellsSet;
            option  all;
        }
    }

    {
        name    coupledFacesSet;
        type    faceSet;
        action  new;
        source  boxToFace;
        sourceInfo
        {
            box (1.0 1.99 0) (2.0 2.09 0.6);
        }
    }

);

// ************************************************************************* //
