/*--------------------------------*- C++ -*----------------------------------*\
| =========                 |                                                 |
| \\      /  F ield         | OpenFOAM: The Open Source CFD Toolbox           |
<<<<<<< HEAD
|  \\    /   O peration     | Version:  3.0.x                                 |
=======
|  \\    /   O peration     | Version:  4.x                                   |
>>>>>>> 90e2f8d87bcd3a8588545c2de68a62d5b5c54a99
|   \\  /    A nd           | Web:      www.OpenFOAM.org                      |
|    \\/     M anipulation  |                                                 |
\*---------------------------------------------------------------------------*/
FoamFile
{
    version     2.0;
    format      ascii;
    class       polyBoundaryMesh;
    object      boundary;
}
// * * * * * * * * * * * * * * * * * * * * * * * * * * * * * * * * * * * * * //
4
(
inlet
{
    type patch;
    physicalType inlet;
    nFaces 134;
    startFace 21254;
}

outlet
{
    type patch;
    physicalType outlet;
    nFaces 160;
    startFace 21388;
}

walls
{
    type wall;
    physicalType wall;
    nFaces 78;
    startFace 21548;
}

frontAndBack
{
    type empty;
    physicalType empty;
    nFaces 21440;
    startFace 21626;
}
)

// ************************************************************************* //
