/*--------------------------------*- C++ -*----------------------------------*\
| =========                 |                                                 |
| \\      /  F ield         | OpenFOAM: The Open Source CFD Toolbox           |
<<<<<<< HEAD
|  \\    /   O peration     | Version:  3.0.x                                 |
=======
|  \\    /   O peration     | Version:  4.x                                   |
>>>>>>> 90e2f8d87bcd3a8588545c2de68a62d5b5c54a99
|   \\  /    A nd           | Web:      www.OpenFOAM.org                      |
|    \\/     M anipulation  |                                                 |
\*---------------------------------------------------------------------------*/
FoamFile
{
    version     2.0;
    format      ascii;
    class       dictionary;
    location    "constant";
    object      dynamicMeshDict;
}
// * * * * * * * * * * * * * * * * * * * * * * * * * * * * * * * * * * * * * //

dynamicFvMesh   solidBodyMotionFvMesh;

solidBodyMotionFvMeshCoeffs
{
    solidBodyMotionFunction SDA;
    SDACoeffs
    {
        CofG            (0 0 0);
        lamda           50;
        rollAmax        0.22654;
        rollAmin        0.10472;
        heaveA          3.79;
        swayA           2.34;
        Q               2;
        Tp              13.93;
        Tpn             11.93;
        dTi             0.059;
        dTp             -0.001;
    }
}


// ************************************************************************* //
